trafo13_lvnetwork3_1_Losses.Txt

LOSSES REPORT

Power Delivery Element Loss Report

Element                  kW Losses    % of Power   kvar Losses

"Transformer.TRANSFORMER80"                           0.86313,     0.71     0.000332177
"Line.LV_CABLE_TRAFO13_LVNETWORK3_2_MAIN_GRID"        0.11088,     0.09     0.0682858
"Line.LV_CABLE_TRAFO13_LVNETWORK3_TO_HOME_11_ARCH3"   0.00072,      0.0     3.80656E-005
"Line.LV_CABLE_TRAFO13_LVNETWORK3_3_MAIN_GRID"        0.01929,     0.02     0.0118775
"Line.LV_CABLE_TRAFO13_LVNETWORK3_TO_HOME_10_ARCH3"   0.00072,      0.0     3.81235E-005
"Line.LV_CABLE_TRAFO13_LVNETWORK3_4_MAIN_GRID"        0.05643,     0.05     0.034754
"Line.LV_CABLE_TRAFO13_LVNETWORK3_TO_HOME_9_ARCH3"    0.00073,      0.0     3.83096E-005
"Line.LV_CABLE_TRAFO13_LVNETWORK3_5_MAIN_GRID"        0.05355,     0.05     0.0329781
"Line.LV_CABLE_TRAFO13_LVNETWORK3_TO_HOME_8_ARCH3"    0.00073,      0.0     3.84955E-005
"Line.LV_CABLE_TRAFO13_LVNETWORK3_6_MAIN_GRID"        0.05072,     0.05     0.0312386
"Line.LV_CABLE_TRAFO13_LVNETWORK3_TO_HOME_7_ARCH3"    0.00073,      0.0     3.8684E-005
"Line.LV_CABLE_TRAFO13_LVNETWORK3_7_MAIN_GRID"        0.10932,     0.10     0.0673248
"Line.LV_CABLE_TRAFO13_LVNETWORK3_TO_HOME_6_ARCH3"    0.00073,      0.0     3.84351E-005
"Line.LV_CABLE_TRAFO13_LVNETWORK3_8_MAIN_GRID"        0.38589,     0.37     0.237658
"Line.LV_CABLE_TRAFO13_LVNETWORK3_TO_HOME_4_ARCH3"    0.00067,      0.0     3.53622E-005
"Line.LV_CABLE_TRAFO13_LVNETWORK3_9_MAIN_GRID"        0.04268,     0.04     0.0262869
"Line.LV_CABLE_TRAFO13_LVNETWORK3_TO_HOME_5_ARCH3"    0.00066,      0.0     3.5026E-005
"Line.LV_CABLE_TRAFO13_LVNETWORK3_10_MAIN_GRID"       0.04016,     0.04     0.0247327
"Line.LV_CABLE_TRAFO13_LVNETWORK3_TO_HOME_1_ARCH3"    0.00066,      0.0     3.46881E-005
"Line.LV_CABLE_TRAFO13_LVNETWORK3_11_MAIN_GRID"       0.03770,     0.04     0.0232206
"Line.LV_CABLE_TRAFO13_LVNETWORK3_TO_HOME_2_ARCH3"    0.00065,      0.0     3.43482E-005
"Line.LV_CABLE_TRAFO13_LVNETWORK3_12_MAIN_GRID"       0.03531,     0.04     0.0217467
"Line.LV_CABLE_TRAFO13_LVNETWORK3_TO_HOME_3_ARCH3"    0.00064,      0.0     3.40086E-005
"Line.LV_CABLE_TRAFO13_LVNETWORK3_13_MAIN_GRID"       0.03302,     0.04     0.0203372
"Line.LV_CABLE_TRAFO13_LVNETWORK3_TO_HOME_0_ARCH3"    0.00064,      0.0     3.36731E-005
"Line.LV_CABLE_TRAFO13_LVNETWORK3_14_MAIN_GRID"       0.02415,     0.03     0.0148709
"Line.LV_CABLE_TRAFO13_LVNETWORK3_15_MAIN_GRID"       0.00738,     0.01     0.00454534
"Line.LV_CABLE_TRAFO13_LVNETWORK3_TO_HOME_14_ARCH3"   0.00063,      0.0     3.33217E-005
"Line.LV_CABLE_TRAFO13_LVNETWORK3_16_MAIN_GRID"       0.04716,     0.06     0.0290467
"Line.LV_CABLE_TRAFO13_LVNETWORK3_TO_HOME_13_ARCH3"   0.00093,     0.03     4.90528E-005
"Line.LV_CABLE_TRAFO13_LVNETWORK3_17_MAIN_GRID"       0.02663,     0.03     0.016402
"Line.LV_CABLE_TRAFO13_LVNETWORK3_TO_HOME_12_ARCH3"   0.00093,     0.03     4.88164E-005
"Line.LV_CABLE_TRAFO13_LVNETWORK3_18_MAIN_GRID"       0.03911,     0.05     0.0240895
"Line.LV_CABLE_TRAFO13_LVNETWORK3_19_MAIN_GRID"       0.07718,     0.10     0.0475346
"Line.LV_CABLE_TRAFO13_LVNETWORK3_TO_HOME_15_ARCH3"   0.00030,      0.0     1.56658E-005
"Line.LV_CABLE_TRAFO13_LVNETWORK3_20_MAIN_GRID"       0.03316,     0.05     0.0204216
"Line.LV_CABLE_TRAFO13_LVNETWORK3_21_MAIN_GRID"       0.03656,     0.05     0.0225151
"Line.LV_CABLE_TRAFO13_LVNETWORK3_TO_HOME_17_ARCH3"   0.00044,      0.0     2.2972E-005
"Line.LV_CABLE_TRAFO13_LVNETWORK3_22_MAIN_GRID"       0.02240,     0.03     0.0137933
"Line.LV_CABLE_TRAFO13_LVNETWORK3_TO_HOME_16_ARCH3"   0.00082,      0.0     4.31474E-005
"Line.LV_CABLE_TRAFO13_LVNETWORK3_23_MAIN_GRID"       0.01899,     0.03     0.0116948
"Line.LV_CABLE_TRAFO13_LVNETWORK3_TO_HOME_18_ARCH3"   0.00080,      0.0     4.21441E-005
"Line.LV_CABLE_TRAFO13_LVNETWORK3_24_MAIN_GRID"       0.01730,     0.03     0.0106554
"Line.LV_CABLE_TRAFO13_LVNETWORK3_TO_HOME_19_ARCH3"   0.00078,      0.0     4.11382E-005
"Line.LV_CABLE_TRAFO13_LVNETWORK3_25_MAIN_GRID"       0.01054,     0.02     0.00649177
"Line.LV_CABLE_TRAFO13_LVNETWORK3_TO_HOME_20_ARCH3"   0.00077,      0.0     4.04402E-005
"Line.LV_CABLE_TRAFO13_LVNETWORK3_26_MAIN_GRID"       0.07170,     0.13     0.0441566
"Line.LV_CABLE_TRAFO13_LVNETWORK3_TO_HOME_32_ARCH3"   0.00099,     0.03     5.24382E-005
"Line.LV_CABLE_TRAFO13_LVNETWORK3_27_MAIN_GRID"       0.01225,     0.02     0.00754282
"Line.LV_CABLE_TRAFO13_LVNETWORK3_TO_HOME_37_ARCH3"   0.00068,      0.0     3.60624E-005
"Line.LV_CABLE_TRAFO13_LVNETWORK3_TO_HOME_38_ARCH3"   0.00006,      0.0     3.38154E-006
"Line.LV_CABLE_TRAFO13_LVNETWORK3_28_MAIN_GRID"       0.00036,      0.0     0.000220482
"Line.LV_CABLE_TRAFO13_LVNETWORK3_TO_HOME_33_ARCH3"   0.00099,     0.03     5.2283E-005
"Line.LV_CABLE_TRAFO13_LVNETWORK3_29_MAIN_GRID"       0.00884,     0.02     0.00544143
"Line.LV_CABLE_TRAFO13_LVNETWORK3_TO_HOME_36_ARCH3"   0.00099,     0.03     5.21313E-005
"Line.LV_CABLE_TRAFO13_LVNETWORK3_30_MAIN_GRID"       0.00777,     0.02     0.00478337
"Line.LV_CABLE_TRAFO13_LVNETWORK3_TO_HOME_35_ARCH3"   0.00099,     0.03     5.1969E-005
"Line.LV_CABLE_TRAFO13_LVNETWORK3_31_MAIN_GRID"       0.00575,     0.01     0.00353808
"Line.LV_CABLE_TRAFO13_LVNETWORK3_TO_HOME_34_ARCH3"   0.00098,     0.03     5.18315E-005
"Line.LV_CABLE_TRAFO13_LVNETWORK3_32_MAIN_GRID"       0.00110,     0.00     0.00067738
"Line.LV_CABLE_TRAFO13_LVNETWORK3_TO_HOME_41_ARCH3"   0.00078,      0.0     4.10955E-005
"Line.LV_CABLE_TRAFO13_LVNETWORK3_33_MAIN_GRID"       0.00475,     0.01     0.00292621
"Line.LV_CABLE_TRAFO13_LVNETWORK3_TO_HOME_40_ARCH3"   0.00082,      0.0     4.31487E-005
"Line.LV_CABLE_TRAFO13_LVNETWORK3_34_MAIN_GRID"       0.00393,     0.01     0.00241765
"Line.LV_CABLE_TRAFO13_LVNETWORK3_TO_HOME_39_ARCH3"   0.00086,      0.0     4.52052E-005
"Line.LV_CABLE_TRAFO13_LVNETWORK3_35_MAIN_GRID"       0.00363,     0.01     0.0022367
"Line.LV_CABLE_TRAFO13_LVNETWORK3_36_MAIN_GRID"       0.00744,     0.03     0.00457946
"Line.LV_CABLE_TRAFO13_LVNETWORK3_37_MAIN_GRID"       0.00127,     0.00     0.000782495
"Line.LV_CABLE_TRAFO13_LVNETWORK3_TO_HOME_21_ARCH3"   0.00094,     0.03     4.94317E-005
"Line.LV_CABLE_TRAFO13_LVNETWORK3_38_MAIN_GRID"       0.00267,     0.01     0.00164211
"Line.LV_CABLE_TRAFO13_LVNETWORK3_TO_HOME_22_ARCH3"   0.00094,     0.03     4.96957E-005
"Line.LV_CABLE_TRAFO13_LVNETWORK3_39_MAIN_GRID"       0.00465,     0.02     0.00286046
"Line.LV_CABLE_TRAFO13_LVNETWORK3_TO_HOME_23_ARCH3"   0.00093,     0.03     4.88187E-005
"Line.LV_CABLE_TRAFO13_LVNETWORK3_40_MAIN_GRID"       0.00170,     0.01     0.00104383
"Line.LV_CABLE_TRAFO13_LVNETWORK3_TO_HOME_25_ARCH3"   0.00081,      0.0     4.28332E-005
"Line.LV_CABLE_TRAFO13_LVNETWORK3_41_MAIN_GRID"       0.00084,      0.0     0.000515347
"Line.LV_CABLE_TRAFO13_LVNETWORK3_42_MAIN_GRID"       0.00067,      0.0     0.000415177
"Line.LV_CABLE_TRAFO13_LVNETWORK3_TO_HOME_28_ARCH3"   0.00093,     0.03     4.92187E-005
"Line.LV_CABLE_TRAFO13_LVNETWORK3_43_MAIN_GRID"       0.00352,     0.03     0.0021688
"Line.LV_CABLE_TRAFO13_LVNETWORK3_44_MAIN_GRID"       0.00175,     0.01     0.00107995
"Line.LV_CABLE_TRAFO13_LVNETWORK3_45_MAIN_GRID"       0.00913,     0.08     0.00561825
"Line.LV_CABLE_TRAFO13_LVNETWORK3_TO_HOME_27_ARCH3"   0.00173,     0.06     9.1357E-005
"Line.LV_CABLE_TRAFO13_LVNETWORK3_46_MAIN_GRID"       0.00012,      0.0     7.16422E-005
"Line.LV_CABLE_TRAFO13_LVNETWORK3_47_MAIN_GRID"       0.00351,     0.04     0.00215846
"Line.LV_CABLE_TRAFO13_LVNETWORK3_48_MAIN_GRID"       0.00292,     0.03     0.00179686
"Line.LV_CABLE_TRAFO13_LVNETWORK3_TO_HOME_29_ARCH3"   0.00040,      0.0     2.11402E-005
"Line.LV_CABLE_TRAFO13_LVNETWORK3_49_MAIN_GRID"       0.00006,      0.0     3.79733E-005
"Line.LV_CABLE_TRAFO13_LVNETWORK3_TO_HOME_30_ARCH3"   0.00099,     0.03     5.23205E-005
"Line.LV_CABLE_TRAFO13_LVNETWORK3_50_MAIN_GRID"       0.00001,      0.0     9.1191E-006
"Line.LV_CABLE_TRAFO13_LVNETWORK3_TO_HOME_31_ARCH3"   0.00156,     0.05     8.24651E-005
"Line.LV_CABLE_TRAFO13_LVNETWORK3_51_MAIN_GRID"       0.00000,      0.0     -1.52153E-006
"Line.LV_CABLE_TRAFO13_LVNETWORK3_52_MAIN_GRID"       0.00000,      0.0     -1.31524E-007

LINE LOSSES=                         1.5 kW
TRANSFORMER LOSSES=                  0.9 kW

TOTAL LOSSES=                        2.4 kW

TOTAL LOAD POWER =                 120.0 kW
Percent Losses for Circuit =      1.99 %
